Testing file read......
New line....
Finish program....	Test 1	test2Program added lines.... 0
Program added lines.... 1
Program added lines.... 2
Program added lines.... 3
Program added lines.... 4
Program added lines.... 5
Program added lines.... 6
Program added lines.... 7
Program added lines.... 8
Program added lines.... 9
